testData/tamu2000/pfcases_100_zone16/Equ_tx2000_hr_4690_mod_v23_zone16_pslf.raw
0  100.000 
THIS IS A SYNTHETIC POWER SYSTEM MODEL THAT DOES NOT REPRESE
DATA RESEARCH PROJECT AND CONTAINS NO CEII.
1004,  2,  35.628,  -14.950,  0.000,  0.000,  1,  1.02571,  -63.1965,  'O DONNEL',  230.00,  9
1021,  2,  60.916,  -25.352,  0.000,  0.000,  1,  1.00854,  -59.8015,  'BIG SPRI',  13.800,  9
1023,  2,  11.330,  -3.054,  0.000,  0.000,  1,  1.01000,  -60.5032,  'O DONNEL',  13.800,  9
1033,  2,  212.512,  -34.055,  0.000,  0.000,  1,  1.00000,  -58.1892,  'MCCAMEY ',  230.00,  9
1048,  2,  101.096,  1.186,  0.000,  0.000,  1,  1.00000,  -37.1978,  'MONAHANS',  18.000,  9
1049,  2,  72.092,  8.664,  0.000,  0.000,  1,  1.00000,  -30.0433,  'MONAHANS',  18.000,  9
1053,  2,  58.099,  -13.068,  0.000,  0.000,  1,  1.00441,  -51.1837,  'MONAHANS',  230.00,  9
1063,  2,  87.940,  -0.844,  0.000,  0.000,  1,  1.01966,  -50.4666,  'BIG SPRI',  13.800,  9
1070,  2,  69.448,  -2.579,  0.000,  0.000,  1,  1.04000,  -60.1100,  'IRAAN 1 ',  13.800,  9
1072,  3,  73.949,  0.687,  0.000,  0.000,  1,  1.01000,  -46.8886,  'ODESSA 1',  18.000,  9
1073,  2,  51.055,  -0.074,  0.000,  0.000,  1,  1.01000,  -45.9247,  'ODESSA 1',  18.000,  9
1074,  2,  52.817,  2.477,  0.000,  0.000,  1,  1.01000,  -46.3777,  'ODESSA 1',  18.000,  9
1075,  2,  58.525,  1.998,  0.000,  0.000,  1,  1.01000,  -48.3273,  'ODESSA 1',  18.000,  9
1076,  2,  125.756,  -6.683,  0.000,  0.000,  1,  1.01000,  -52.2572,  'ODESSA 1',  18.000,  9
1077,  2,  54.139,  1.955,  0.000,  0.000,  1,  1.01000,  -46.6966,  'ODESSA 1',  18.000,  9
1081,  2,  126.769,  -36.215,  0.000,  0.000,  1,  1.01000,  -54.7105,  'ODESSA 1',  230.00,  9
2001,  1,  0.000,  0.000,  0.000,  0.000,  2,  1.01113,  -71.5406,  'PARIS 3 ',  161.00,  11
2002,  1,  0.000,  0.000,  0.000,  0.000,  2,  1.02472,  -69.4619,  'SAVOY 0 ',  500.00,  11
2003,  1,  0.000,  0.000,  0.000,  0.000,  2,  1.02493,  -71.4172,  'SAVOY 1 ',  161.00,  11
2004,  2,  0.000,  0.000,  0.000,  0.000,  2,  1.02000,  -68.5132,  'SAVOY 2 ',  13.800,  11
2005,  2,  0.000,  0.000,  0.000,  0.000,  2,  1.02000,  -68.3522,  'SAVOY 3 ',  13.800,  11
2006,  2,  0.000,  0.000,  0.000,  0.000,  2,  1.02000,  -67.7320,  'SAVOY 4 ',  13.800,  11
2007,  1,  0.000,  0.000,  0.000,  0.000,  2,  1.01540,  -71.0124,  'HONEY GR',  161.00,  11
2009,  1,  -0.007,  -80.609,  0.000,  0.000,  2,  1.03002,  -69.4605,  'IOWA PAR',  161.00,  11
2015,  1,  0.000,  0.000,  0.000,  0.000,  2,  1.01915,  -75.5789,  'FORESTBU',  161.00,  11
2016,  1,  0.000,  0.000,  0.000,  0.000,  2,  1.02459,  -75.3113,  'SHERMAN ',  161.00,  11
2020,  1,  0.000,  0.000,  0.000,  0.000,  2,  1.01648,  -68.1998,  'WICHITA ',  161.00,  11
2021,  1,  0.000,  0.000,  0.000,  0.000,  2,  1.02536,  -68.5173,  'PARIS 2 ',  500.00,  11
2022,  1,  0.000,  0.000,  0.000,  0.000,  2,  1.01795,  -70.4697,  'PARIS 2 ',  161.00,  11
2023,  2,  0.000,  0.000,  0.000,  0.000,  2,  1.02536,  -68.5173,  'PARIS 2 ',  13.800,  11
2024,  2,  0.000,  0.000,  0.000,  0.000,  2,  1.02105,  -67.2306,  'PARIS 2 ',  13.800,  11
2025,  1,  0.000,  0.000,  0.000,  0.000,  2,  1.01456,  -67.6995,  'WICHITA ',  161.00,  11
2027,  1,  0.000,  0.000,  0.000,  0.000,  2,  1.00899,  -72.1060,  'DEPORT 0',  161.00,  11
2028,  1,  0.000,  0.000,  0.000,  0.000,  2,  1.01649,  -69.6543,  'WICHITA ',  161.00,  11
2030,  1,  0.000,  0.000,  0.000,  0.000,  2,  0.99914,  -74.2909,  'BONHAM 0',  161.00,  11
2032,  1,  0.000,  0.000,  0.000,  0.000,  2,  1.01726,  -70.5755,  'ARTHUR C',  161.00,  11
2033,  1,  0.000,  0.000,  0.000,  0.000,  2,  0.98598,  -76.7182,  'LEONARD ',  161.00,  11
2034,  1,  0.000,  0.000,  0.000,  0.000,  2,  1.02658,  -74.8924,  'GORDONVI',  161.00,  11
2036,  1,  0.000,  0.000,  0.000,  0.000,  2,  1.01713,  -68.2330,  'WICHITA ',  161.00,  11
2037,  1,  0.000,  0.000,  0.000,  0.000,  2,  1.02776,  -75.3251,  'LINDSAY ',  161.00,  11
2038,  1,  0.000,  0.000,  0.000,  0.000,  2,  1.01976,  -72.2882,  'ECTOR 0 ',  161.00,  11
2039,  1,  0.000,  0.000,  0.000,  0.000,  2,  1.00433,  -75.1211,  'SUNSET 0',  161.00,  11
2040,  1,  0.000,  0.000,  0.000,  0.000,  2,  1.01596,  -71.0735,  'CLARKSVI',  161.00,  11
2043,  1,  0.000,  0.000,  0.000,  0.000,  2,  1.02572,  -75.0813,  'SADLER 0',  161.00,  11
2044,  1,  0.000,  0.000,  0.000,  0.000,  2,  1.02627,  -74.1541,  'WHITESBO',  161.00,  11
2045,  1,  0.000,  0.000,  0.000,  0.000,  2,  1.01600,  -68.5473,  'SHEPPARD',  161.00,  11
2046,  1,  0.000,  0.000,  0.000,  0.000,  2,  1.02763,  -74.6582,  'POTTSBOR',  161.00,  11
2047,  1,  0.000,  0.000,  0.000,  0.000,  2,  1.02550,  -71.9772,  'BELLS 0 ',  161.00,  11
2049,  1,  28.481,  -5.645,  0.000,  0.000,  2,  1.02801,  -68.3461,  'ELECTRA ',  161.00,  10
2050,  1,  0.000,  0.000,  0.000,  0.000,  2,  0.98291,  -76.0074,  'PATTONVI',  161.00,  11
2051,  1,  0.000,  0.000,  0.000,  0.000,  2,  1.01348,  -72.5179,  'HENRIETT',  161.00,  11
2053,  1,  0.000,  0.000,  0.000,  0.000,  2,  1.00512,  -73.1314,  'BOWIE 0 ',  161.00,  11
2054,  1,  0.000,  0.000,  0.000,  0.000,  2,  1.01936,  -66.8578,  'WICHITA ',  500.00,  11
2055,  1,  0.000,  0.000,  0.000,  0.000,  2,  1.01808,  -67.5754,  'WICHITA ',  161.00,  11
2056,  2,  0.000,  0.000,  0.000,  0.000,  2,  1.01936,  -66.8578,  'WICHITA ',  18.000,  11
2057,  3,  0.000,  0.000,  0.000,  0.000,  2,  0.99000,  -64.5031,  'WICHITA ',  18.000,  11
2060,  1,  0.000,  0.000,  0.000,  0.000,  2,  0.98884,  -74.5857,  'ROXTON 0',  161.00,  11
2062,  2,  33.362,  -7.222,  0.000,  0.000,  2,  1.02069,  -65.2399,  'VERNON 1',  18.000,  10
2063,  1,  0.000,  -42.393,  0.000,  0.000,  2,  1.02948,  -74.2783,  'DENISON ',  161.00,  11
2064,  1,  0.000,  0.000,  0.000,  0.000,  2,  1.00339,  -72.4233,  'SUMNER 0',  161.00,  11
2065,  1,  -0.005,  -66.485,  0.000,  0.000,  2,  1.03000,  -75.6705,  'GAINESVI',  161.00,  11
2067,  1,  0.000,  0.000,  0.000,  0.000,  2,  1.01227,  -67.6001,  'WICHITA ',  161.00,  11
2068,  1,  0.000,  0.000,  0.000,  0.000,  2,  1.01258,  -65.9503,  'WINDTHOR',  161.00,  11
2069,  1,  -0.079,  -56.525,  0.000,  0.000,  2,  1.03000,  -74.8704,  'HOWE 0  ',  161.00,  11
2070,  1,  0.000,  0.000,  0.000,  0.000,  2,  1.01370,  -65.5099,  'ARCHER 2',  161.00,  11
2071,  2,  0.000,  0.000,  0.000,  0.000,  2,  1.00157,  -63.5342,  'ARCHER 2',  18.000,  11
2072,  1,  0.000,  0.000,  0.000,  0.000,  2,  1.02800,  -73.5533,  'COLLINSV',  161.00,  11
2077,  1,  0.000,  0.000,  0.000,  0.000,  2,  1.02753,  -74.5047,  'MUENSTER',  161.00,  11
2078,  2,  0.000,  0.000,  0.000,  0.000,  2,  1.02000,  -72.7114,  'MUENSTER',  13.800,  11
2080,  1,  0.000,  0.000,  0.000,  0.000,  2,  1.01423,  -73.7773,  'NOCONA 0',  161.00,  11
2081,  1,  0.000,  0.000,  0.000,  0.000,  2,  1.01071,  -73.8537,  'DODD CIT',  161.00,  11
2082,  1,  0.000,  0.000,  0.000,  0.000,  2,  1.01813,  -68.7517,  'WICHITA ',  161.00,  11
2083,  2,  0.000,  0.000,  0.000,  0.000,  2,  1.01813,  -68.7517,  'WICHITA ',  20.000,  11
2084,  2,  0.000,  0.000,  0.000,  0.000,  2,  1.01813,  -68.7517,  'WICHITA ',  20.000,  11
2085,  2,  0.000,  0.000,  0.000,  0.000,  2,  1.01813,  -68.7517,  'WICHITA ',  20.000,  11
2086,  1,  0.000,  0.000,  0.000,  0.000,  2,  1.00837,  -74.6286,  'MONTAGUE',  161.00,  11
2088,  1,  0.000,  0.000,  0.000,  0.000,  2,  1.01270,  -65.7075,  'ARCHER 1',  161.00,  11
2089,  1,  -27.416,  9.730,  0.000,  0.000,  2,  1.00078,  -63.7713,  'ARCHER 1',  24.000,  11
2090,  1,  0.000,  0.000,  0.000,  0.000,  2,  1.00424,  -73.0352,  'ANNONA 0',  161.00,  11
2092,  1,  0.000,  0.000,  0.000,  0.000,  2,  1.02690,  -73.1321,  'DENISON ',  161.00,  11
2100,  2,  13.694,  3.898,  0.000,  0.000,  2,  1.02112,  -62.5701,  'RALLS 1 ',  18.000,  10
2101,  1,  0.000,  0.000,  0.000,  0.000,  2,  1.02534,  -70.1123,  'SHERMAN ',  500.00,  11
2102,  1,  0.000,  0.000,  0.000,  0.000,  2,  1.02647,  -71.3940,  'SHERMAN ',  161.00,  11
2103,  2,  0.000,  0.000,  0.000,  0.000,  2,  1.02180,  -69.5593,  'SHERMAN ',  20.000,  11
2104,  2,  0.000,  0.000,  0.000,  0.000,  2,  1.02066,  -69.3875,  'SHERMAN ',  20.000,  11
2105,  2,  0.000,  0.000,  0.000,  0.000,  2,  1.01801,  -68.9622,  'SHERMAN ',  20.000,  11
2106,  1,  0.000,  0.000,  0.000,  0.000,  2,  0.99249,  -76.1704,  'WHITEWRI',  161.00,  11
2107,  1,  0.000,  0.000,  0.000,  0.000,  2,  1.02342,  -72.0240,  'SHERMAN ',  161.00,  11
2109,  1,  0.000,  0.000,  0.000,  0.000,  2,  1.02156,  -69.8701,  'BURKBURN',  161.00,  11
2110,  1,  -0.001,  -36.194,  0.000,  0.000,  2,  1.03000,  -74.9042,  'MUENSTER',  161.00,  11
2111,  1,  0.000,  0.000,  0.000,  0.000,  2,  1.02320,  -69.6578,  'ARCHER C',  161.00,  11
2112,  1,  0.000,  0.000,  0.000,  0.000,  2,  1.01539,  -70.5577,  'PETROLIA',  161.00,  11
2113,  1,  0.000,  0.000,  0.000,  0.000,  2,  1.02572,  -68.3561,  'PARIS 1 ',  500.00,  11
2114,  1,  0.000,  0.000,  0.000,  0.000,  2,  1.02341,  -69.3539,  'PARIS 1 ',  161.00,  11
2115,  2,  0.000,  0.000,  0.000,  0.000,  2,  1.01774,  -65.5410,  'PARIS 1 ',  13.800,  11
2116,  2,  0.000,  0.000,  0.000,  0.000,  2,  1.02172,  -66.8965,  'PARIS 1 ',  13.800,  11
2117,  2,  0.000,  0.000,  0.000,  0.000,  2,  1.01564,  -65.0944,  'PARIS 1 ',  13.800,  11
2118,  2,  0.000,  0.000,  0.000,  0.000,  2,  1.01455,  -64.7378,  'PARIS 1 ',  13.800,  11
2119,  2,  0.000,  0.000,  0.000,  0.000,  2,  1.02077,  -66.5776,  'PARIS 1 ',  13.800,  11
2120,  2,  0.000,  0.000,  0.000,  0.000,  2,  1.01518,  -64.8802,  'PARIS 1 ',  13.800,  11
2121,  1,  0.000,  0.000,  0.000,  0.000,  2,  1.01235,  -71.7773,  'BAGWELL ',  161.00,  11
2122,  1,  0.000,  0.000,  0.000,  0.000,  2,  1.00914,  -72.0696,  'TELEPHON',  161.00,  11
2123,  2,  10.802,  5.949,  0.000,  0.000,  2,  1.02624,  -64.1522,  'PANHANDL',  161.00,  10
2124,  1,  0.000,  0.000,  0.000,  0.000,  2,  0.98554,  -77.3280,  'VAN ALST',  161.00,  11
2125,  1,  0.000,  0.000,  0.000,  0.000,  2,  1.01715,  -74.0116,  'TIOGA 0 ',  161.00,  11
2126,  1,  0.000,  0.000,  0.000,  0.000,  2,  1.02362,  -75.9036,  'VALLEY V',  161.00,  11
2127,  2,  25.308,  170.325,  0.000,  0.000,  2,  1.04176,  -65.4466,  'MIAMI 0 ',  500.00,  10
2129,  1,  0.000,  0.000,  0.000,  0.000,  2,  0.99606,  -76.0158,  'TRENTON ',  161.00,  11
2133,  1,  0.000,  0.000,  0.000,  0.000,  2,  1.02485,  -74.4059,  'SAINT JO',  161.00,  11
3017,  2,  48.305,  -4.802,  0.000,  0.000,  3,  1.01000,  -66.8308,  'BLACKWEL',  18.000,  27
3028,  2,  58.923,  5.744,  0.000,  0.000,  3,  1.04000,  -65.7460,  'ABILENE ',  18.000,  27
3039,  2,  24.469,  -1.099,  0.000,  0.000,  3,  1.04000,  -64.2144,  'ROSCOE 2',  13.800,  27
3045,  2,  26.129,  -0.126,  0.000,  0.000,  3,  1.04000,  -59.5531,  'SILVER 4',  13.800,  27
3048,  2,  488.928,  -580.466,  0.000,  0.000,  3,  1.04357,  -66.7860,  'ROSCOE 5',  500.00,  27
3055,  2,  53.685,  -2.757,  0.000,  0.000,  3,  1.04000,  -64.5539,  'WINGATE ',  13.800,  27
3056,  2,  28.608,  -0.382,  0.000,  0.000,  3,  1.04000,  -63.8990,  'WINGATE ',  13.800,  27
3057,  2,  29.369,  -0.708,  0.000,  0.000,  3,  1.04000,  -63.9408,  'WINGATE ',  13.800,  27
3060,  2,  19.926,  0.711,  0.000,  0.000,  3,  1.04000,  -61.4153,  'STERLING',  18.000,  27
3061,  2,  26.880,  0.167,  0.000,  0.000,  3,  1.04000,  -61.9662,  'STERLING',  18.000,  27
3062,  2,  43.776,  -3.909,  0.000,  0.000,  3,  1.04000,  -62.6484,  'STERLING',  18.000,  27
3063,  2,  35.405,  -2.215,  0.000,  0.000,  3,  1.04000,  -62.3550,  'STERLING',  18.000,  27
3071,  2,  50.208,  -12.994,  0.000,  0.000,  3,  1.00485,  -66.9842,  'NOLAN 1 ',  24.000,  27
3081,  2,  16.658,  -0.015,  0.000,  0.000,  3,  1.04000,  -63.2388,  'HERMLEIG',  20.000,  27
3084,  2,  13.223,  -4.560,  0.000,  0.000,  3,  1.00000,  -62.9775,  'MERKEL 1',  13.800,  27
3092,  2,  32.660,  6.111,  0.000,  0.000,  3,  1.04000,  -65.3933,  'ABILENE ',  13.800,  27
3098,  2,  6.682,  -2.311,  0.000,  0.000,  3,  1.04000,  -61.4154,  'FLUVANNA',  13.800,  27
3106,  3,  55.945,  -8.264,  0.000,  0.000,  3,  1.00000,  -69.7917,  'BUCHANAN',  13.200,  28
3122,  2,  14.334,  -3.398,  0.000,  0.000,  3,  1.00000,  -62.4833,  'ROSCOE 1',  18.000,  27
4010,  2,  40.061,  -6.533,  0.000,  0.000,  4,  1.03000,  -102.5017,  'SARITA 3',  20.000,  21
4026,  2,  256.665,  -8.356,  0.000,  0.000,  4,  1.03000,  -78.0540,  'CHRISTIN',  13.800,  20
4030,  3,  256.789,  3.611,  0.000,  0.000,  4,  1.01000,  -68.6583,  'FANNIN 2',  13.800,  21
4047,  2,  64.255,  7.652,  0.000,  0.000,  4,  1.02000,  -106.8774,  'FALCON H',  13.800,  19
4050,  2,  24.954,  -14.796,  0.000,  0.000,  4,  1.00113,  -115.1467,  'SEBASTIA',  13.800,  19
4058,  2,  41.685,  7.895,  0.000,  0.000,  4,  1.03000,  -84.5184,  'GREGORY ',  13.800,  21
4059,  2,  48.841,  8.223,  0.000,  0.000,  4,  1.03000,  -84.9364,  'GREGORY ',  13.800,  21
4060,  2,  35.448,  6.508,  0.000,  0.000,  4,  1.03000,  -83.3406,  'GREGORY ',  13.800,  21
4061,  2,  43.722,  8.677,  0.000,  0.000,  4,  1.03000,  -83.2878,  'GREGORY ',  13.800,  21
4062,  2,  42.901,  7.623,  0.000,  0.000,  4,  1.03000,  -82.3207,  'GREGORY ',  13.800,  21
4063,  2,  42.974,  9.122,  0.000,  0.000,  4,  1.03000,  -83.2146,  'GREGORY ',  13.800,  21
4082,  2,  42.090,  3.522,  0.000,  0.000,  4,  1.04000,  -90.6484,  'CORPUS C',  13.800,  21
4083,  2,  44.731,  3.622,  0.000,  0.000,  4,  1.04000,  -91.0231,  'CORPUS C',  13.800,  21
4084,  2,  49.531,  1.284,  0.000,  0.000,  4,  1.04000,  -93.0089,  'CORPUS C',  13.800,  21
4085,  2,  65.733,  1.003,  0.000,  0.000,  4,  1.04000,  -91.8671,  'CORPUS C',  13.800,  21
4105,  2,  149.965,  14.643,  0.000,  0.000,  4,  1.01000,  -92.0528,  'TAFT 2 1',  18.000,  21
4115,  2,  163.981,  -19.798,  0.000,  0.000,  4,  1.04000,  -98.7194,  'LAREDO 1',  13.800,  20
4116,  2,  145.715,  -17.288,  0.000,  0.000,  4,  1.04000,  -98.6690,  'LAREDO 1',  13.800,  20
4142,  2,  114.834,  -11.931,  0.000,  0.000,  4,  1.03973,  -99.8604,  'SARITA 1',  13.800,  21
4153,  2,  315.681,  -16.148,  0.000,  0.000,  4,  1.03076,  -102.1587,  'ARMSTRON',  18.000,  21
4160,  2,  142.997,  29.983,  0.000,  0.000,  4,  1.03000,  -88.2582,  'CORPUS C',  13.800,  21
4161,  2,  74.373,  16.247,  0.000,  0.000,  4,  1.03000,  -85.5171,  'CORPUS C',  13.800,  21
4162,  2,  75.341,  14.788,  0.000,  0.000,  4,  1.03000,  -85.5795,  'CORPUS C',  13.800,  21
4166,  2,  29.038,  -7.435,  0.000,  0.000,  4,  1.00952,  -102.0768,  'SARITA 2',  13.800,  21
4181,  2,  211.394,  25.890,  0.000,  0.000,  4,  1.01426,  -86.8165,  'TAFT 1 0',  230.00,  21
4183,  2,  371.352,  -19.197,  0.000,  0.000,  4,  1.01590,  -102.6823,  'SAN PERL',  230.00,  19
4192,  2,  899.795,  71.289,  0.000,  0.000,  4,  1.02000,  -103.7869,  'BROWNSVI',  230.00,  19
4194,  2,  812.446,  -134.534,  0.000,  0.000,  4,  1.00969,  -116.6154,  'SEBASTIA',  115.00,  19
5003,  1,  0.000,  0.000,  0.000,  0.000,  5,  1.02322,  -74.8596,  'GARLAND ',  161.00,  16
5004,  1,  0.000,  0.000,  0.000,  0.000,  5,  0.92713,  -83.7240,  'KERENS 0',  161.00,  14
5006,  1,  0.000,  0.000,  0.000,  0.000,  5,  1.02890,  -74.4526,  'DALLAS 2',  161.00,  16
5007,  1,  0.000,  0.000,  0.000,  0.000,  5,  1.02382,  -73.4775,  'DENTON 4',  161.00,  17
5009,  1,  0.000,  0.000,  0.000,  0.000,  5,  1.02705,  -75.5327,  'DALLAS 2',  161.00,  16
5010,  1,  0.000,  0.000,  0.000,  0.000,  5,  1.02691,  -74.8333,  'PLANO 2 ',  161.00,  16
5011,  1,  99.127,  13.354,  0.000,  0.000,  5,  0.91156,  -84.7513,  'THORNTON',  161.00,  13
5012,  1,  0.000,  0.000,  0.000,  0.000,  5,  1.02153,  -73.8985,  'DENTON 5',  161.00,  17
5014,  1,  0.000,  0.000,  0.000,  0.000,  5,  1.00952,  -75.7785,  'DECATUR ',  161.00,  17
5015,  1,  0.000,  0.000,  0.000,  0.000,  5,  1.02753,  -70.8040,  'KELLER 2',  500.00,  17
5016,  1,  0.000,  0.000,  0.000,  0.000,  5,  1.02660,  -73.3249,  'KELLER 2',  161.00,  17
5017,  1,  0.000,  0.000,  0.000,  0.000,  5,  1.01045,  -75.7276,  'PONDER 0',  161.00,  17
5020,  2,  15.310,  -1.758,  0.000,  0.000,  5,  1.02263,  -66.4280,  'JACKSBOR',  13.800,  12
5021,  1,  0.000,  0.000,  0.000,  0.000,  5,  1.02465,  -70.8628,  'ALEDO 1 ',  500.00,  17
5022,  1,  0.000,  0.000,  0.000,  0.000,  5,  1.02393,  -73.1834,  'ALEDO 1 ',  161.00,  17
5023,  2,  0.000,  0.000,  0.000,  0.000,  5,  1.02465,  -70.8628,  'ALEDO 1 ',  13.800,  17
5025,  1,  32.419,  5.176,  0.000,  0.000,  5,  1.01871,  -72.2247,  'CLEBURNE',  161.00,  18
5026,  1,  0.000,  0.000,  0.000,  0.000,  5,  1.02089,  -74.6772,  'FORT WOR',  161.00,  17
5027,  1,  0.000,  0.000,  0.000,  0.000,  5,  1.01928,  -75.7617,  'FORT WOR',  161.00,  17
5028,  1,  0.000,  0.000,  0.000,  0.000,  5,  1.02509,  -74.3547,  'FORT WOR',  161.00,  17
5030,  1,  99.052,  23.252,  0.000,  0.000,  5,  1.01350,  -76.5759,  'SPRINGTO',  161.00,  12
5031,  1,  0.000,  0.000,  0.000,  0.000,  5,  1.01671,  -74.9677,  'PRINCETO',  161.00,  16
5032,  1,  0.000,  0.000,  0.000,  0.000,  5,  1.01938,  -74.8054,  'DALLAS 2',  161.00,  16
5033,  1,  0.000,  0.000,  0.000,  0.000,  5,  1.02369,  -70.7862,  'DALLAS 1',  500.00,  16
5034,  1,  0.000,  0.000,  0.000,  0.000,  5,  1.02089,  -72.6161,  'DALLAS 1',  161.00,  16
5035,  2,  0.000,  0.000,  0.000,  0.000,  5,  1.02369,  -70.7862,  'DALLAS 1',  13.200,  16
5036,  2,  0.000,  0.000,  0.000,  0.000,  5,  1.02369,  -70.7862,  'DALLAS 1',  13.200,  16
5037,  2,  0.000,  0.000,  0.000,  0.000,  5,  1.02000,  -68.7251,  'DALLAS 1',  13.200,  16
5038,  2,  0.000,  0.000,  0.000,  0.000,  5,  1.02000,  -68.6595,  'DALLAS 1',  13.200,  16
5039,  2,  0.000,  0.000,  0.000,  0.000,  5,  1.02195,  -69.8521,  'DALLAS 1',  13.200,  16
5040,  2,  0.000,  0.000,  0.000,  0.000,  5,  1.02000,  -68.0005,  'DALLAS 1',  13.200,  16
5041,  2,  0.000,  0.000,  0.000,  0.000,  5,  1.02000,  -68.8490,  'DALLAS 1',  13.200,  16
5042,  2,  0.000,  0.000,  0.000,  0.000,  5,  1.02000,  -68.5072,  'DALLAS 1',  13.200,  16
5043,  1,  0.000,  0.000,  0.000,  0.000,  5,  1.01490,  -75.7077,  'ROYSE CI',  161.00,  16
5044,  1,  0.000,  0.000,  0.000,  0.000,  5,  1.01545,  -74.2165,  'BOYD 0  ',  161.00,  17
5047,  1,  0.000,  0.000,  0.000,  0.000,  5,  1.02082,  -69.4818,  'MANSFIEL',  500.00,  17
5048,  1,  0.000,  0.000,  0.000,  0.000,  5,  1.02134,  -72.1656,  'MANSFIEL',  161.00,  17
5049,  1,  0.000,  0.000,  0.000,  0.000,  5,  1.02961,  -70.3339,  'GREENVIL',  500.00,  16
5050,  1,  0.000,  0.000,  0.000,  0.000,  5,  1.02054,  -74.2164,  'GREENVIL',  161.00,  16
5051,  2,  0.000,  0.000,  0.000,  0.000,  5,  1.02961,  -70.3339,  'GREENVIL',  22.000,  16
5052,  1,  0.000,  0.000,  0.000,  0.000,  5,  1.02795,  -73.5046,  'GREENVIL',  115.00,  16
5053,  1,  0.000,  0.000,  0.000,  0.000,  5,  1.02492,  -74.1031,  'PLANO 4 ',  161.00,  16
5054,  1,  0.000,  0.000,  0.000,  0.000,  5,  0.88274,  -88.3396,  'GROESBEC',  161.00,  14
5057,  2,  24.838,  -5.185,  0.000,  0.000,  5,  1.02142,  -64.4910,  'GRAHAM 2',  13.800,  12
...
 0 /End of Bus data, Begin Generator data
1004,  '1',  40.481,  -30.380,  44.940,  -30.380,  1.01000,  0,  253.200,  0.00000,  1.00000,  0.00000,  0.00000,  1.00000,  1,  100.0,  211.000,  63.300
1021,  '1',  38.276,  -28.730,  42.490,  -28.730,  1.00000,  0,  239.400,  0.00000,  1.00000,  0.00000,  0.00000,  1.00000,  1,  100.0,  199.500,  59.850
1023,  '1',  34.533,  -12.531,  38.340,  -25.920,  1.01000,  0,  216.000,  0.00000,  1.00000,  0.00000,  0.00000,  1.00000,  1,  100.0,  180.000,  54.000
1033,  '1',  53.335,  -38.136,  59.210,  -40.030,  1.00000,  0,  333.600,  0.00000,  1.00000,  0.00000,  0.00000,  1.00000,  1,  100.0,  278.000,  83.400
1048,  '1',  234.140,  11.247,  165.530,  -36.100,  1.00000,  0,  390.240,  0.00000,  0.10170,  0.00000,  0.00000,  1.00000,  1,  100.0,  325.200,  97.560
1049,  '1',  234.140,  30.194,  165.530,  -36.100,  1.00000,  0,  390.240,  0.00000,  0.13490,  0.00000,  0.00000,  1.00000,  1,  100.0,  325.200,  97.560
1053,  '1',  103.700,  -19.850,  91.010,  -19.850,  1.00000,  0,  214.560,  0.00000,  0.16870,  0.00000,  0.00000,  1.00000,  1,  100.0,  178.800,  53.640
1063,  '1',  144.302,  0.000,  0.000,  0.000,  1.01000,  0,  276.000,  0.00000,  1.00000,  0.00000,  0.00000,  1.00000,  1,  100.0,  230.000,  69.000
1070,  '1',  30.793,  27.724,  34.190,  -23.110,  1.04000,  0,  192.600,  0.00000,  1.00000,  0.00000,  0.00000,  1.00000,  1,  100.0,  160.500,  48.150
1072,  '1',  190.843,  6.795,  97.800,  -21.330,  1.01000,  0,  230.560,  0.00000,  0.30820,  0.00000,  0.00000,  1.00000,  1,  100.0,  192.130,  57.640
1073,  '1',  138.330,  0.650,  97.800,  -21.330,  1.01000,  0,  230.560,  0.00000,  0.19480,  0.00000,  0.00000,  1.00000,  1,  100.0,  192.130,  57.640
1074,  '1',  138.330,  7.617,  97.800,  -21.330,  1.01000,  0,  230.560,  0.00000,  0.20960,  0.00000,  0.00000,  1.00000,  1,  100.0,  192.130,  57.640
1075,  '1',  138.330,  7.035,  97.800,  -21.330,  1.01000,  0,  230.560,  0.00000,  0.12370,  0.00000,  0.00000,  1.00000,  1,  100.0,  192.130,  57.640
1076,  '1',  138.330,  6.394,  97.800,  -21.330,  1.01000,  0,  230.560,  0.00000,  0.10660,  0.00000,  0.00000,  1.00000,  1,  100.0,  192.130,  57.640
1077,  '1',  138.330,  6.333,  97.800,  -21.330,  1.01000,  0,  230.560,  0.00000,  0.15380,  0.00000,  0.00000,  1.00000,  1,  100.0,  192.130,  57.640
1081,  '1',  206.280,  9.980,  145.830,  -31.800,  1.01000,  0,  343.800,  0.00000,  0.14960,  0.00000,  0.00000,  1.00000,  1,  100.0,  286.500,  85.950
2004,  '1',  117.540,  -33.637,  199.430,  -43.490,  1.02000,  0,  470.160,  0.00000,  0.10640,  0.00000,  0.00000,  1.00000,  1,  100.0,  391.800,  117.540
2005,  '1',  117.540,  -29.217,  199.430,  -43.490,  1.02000,  0,  470.160,  0.00000,  0.22750,  0.00000,  0.00000,  1.00000,  1,  100.0,  391.800,  117.540
2006,  '1',  117.540,  -17.778,  199.430,  -43.490,  1.02000,  0,  470.160,  0.00000,  0.20040,  0.00000,  0.00000,  1.00000,  1,  100.0,  391.800,  117.540
2023,  '1',  0.000,  15.439,  42.420,  -9.250,  1.02000,  0,  100.000,  0.00000,  0.29440,  0.00000,  0.00000,  1.00000,  0,  100.0,  83.330,  25.000
2024,  '1',  96.670,  -18.500,  84.830,  -18.500,  1.02000,  0,  200.000,  0.00000,  0.15080,  0.00000,  0.00000,  1.00000,  1,  100.0,  166.670,  50.000
2056,  '1',  0.000,  0.000,  2.800,  -0.730,  0.99000,  0,  7.200,  0.00000,  0.24920,  0.00000,  0.00000,  1.00000,  0,  100.0,  6.000,  1.800
2057,  '1',  309.713,  -219.433,  335.520,  -87.840,  0.99000,  0,  864.000,  0.00000,  0.17700,  0.00000,  0.00000,  1.00000,  1,  100.0,  720.000,  216.000
2062,  '1',  86.574,  -19.500,  28.840,  -19.500,  1.02000,  0,  162.480,  0.00000,  1.00000,  0.00000,  0.00000,  1.00000,  1,  100.0,  135.400,  40.620
2071,  '1',  60.834,  -21.600,  31.950,  -21.600,  1.00000,  0,  180.000,  0.00000,  1.00000,  0.00000,  0.00000,  1.00000,  1,  100.0,  150.000,  45.000
2078,  '1',  45.628,  -11.324,  23.960,  -16.200,  1.02000,  0,  135.000,  0.00000,  1.00000,  0.00000,  0.00000,  1.00000,  1,  100.0,  112.500,  33.750
2083,  '1',  0.000,  10.080,  10.180,  -2.220,  1.02000,  0,  24.000,  0.00000,  0.16410,  0.00000,  0.00000,  1.00000,  0,  100.0,  20.000,  6.000
2084,  '1',  0.000,  0.000,  10.180,  -2.220,  1.02000,  0,  24.000,  0.00000,  0.23120,  0.00000,  0.00000,  1.00000,  0,  100.0,  20.000,  6.000
2085,  '1',  0.000,  0.000,  20.360,  -4.440,  1.02000,  0,  48.000,  0.00000,  0.22690,  0.00000,  0.00000,  1.00000,  0,  100.0,  40.000,  12.000
2100,  '1',  69.962,  -21.600,  31.950,  -21.600,  1.02000,  0,  180.000,  0.00000,  1.00000,  0.00000,  0.00000,  1.00000,  1,  100.0,  150.000,  45.000
2103,  '1',  80.320,  -29.720,  136.280,  -29.720,  1.00000,  0,  321.280,  0.00000,  0.33430,  0.00000,  0.00000,  1.00000,  1,  100.0,  267.730,  80.320
2104,  '1',  80.320,  -29.720,  136.280,  -29.720,  1.00000,  0,  321.280,  0.00000,  0.31470,  0.00000,  0.00000,  1.00000,  1,  100.0,  267.730,  80.320
2105,  '1',  80.320,  -29.720,  136.280,  -29.720,  1.00000,  0,  321.280,  0.00000,  0.14160,  0.00000,  0.00000,  1.00000,  1,  100.0,  267.730,  80.320
2115,  '1',  133.000,  -20.500,  94.020,  -20.500,  1.00000,  0,  221.660,  0.00000,  0.14250,  0.00000,  0.00000,  1.00000,  1,  100.0,  184.720,  55.410
2116,  '1',  133.000,  -20.500,  94.020,  -20.500,  1.00000,  0,  221.660,  0.00000,  0.18690,  0.00000,  0.00000,  1.00000,  1,  100.0,  184.720,  55.410
2117,  '1',  133.000,  -20.500,  94.020,  -20.500,  1.00000,  0,  221.660,  0.00000,  0.32540,  0.00000,  0.00000,  1.00000,  1,  100.0,  184.720,  55.410
2118,  '1',  133.000,  -20.500,  94.020,  -20.500,  1.00000,  0,  221.660,  0.00000,  0.10610,  0.00000,  0.00000,  1.00000,  1,  100.0,  184.720,  55.410
2119,  '1',  133.000,  -20.500,  94.020,  -20.500,  1.00000,  0,  221.660,  0.00000,  0.13600,  0.00000,  0.00000,  1.00000,  1,  100.0,  184.720,  55.410
2120,  '1',  133.000,  -20.500,  94.020,  -20.500,  1.01000,  0,  221.660,  0.00000,  0.20680,  0.00000,  0.00000,  1.00000,  1,  100.0,  184.720,  55.410
2123,  '1',  46.545,  -26.160,  38.700,  -26.160,  1.00000,  0,  218.040,  0.00000,  1.00000,  0.00000,  0.00000,  1.00000,  1,  100.0,  181.700,  54.510
2127,  '1',  94.596,  -41.560,  61.470,  -41.560,  1.04000,  0,  346.320,  0.00000,  1.00000,  0.00000,  0.00000,  1.00000,  1,  100.0,  288.600,  86.580
3017,  '1',  32.520,  -12.385,  36.100,  -24.410,  1.01000,  0,  203.400,  0.00000,  1.00000,  0.00000,  0.00000,  1.00000,  1,  100.0,  169.500,  50.850
3028,  '1',  81.112,  8.661,  42.600,  -28.800,  1.04000,  0,  240.000,  0.00000,  1.00000,  0.00000,  0.00000,  1.00000,  1,  100.0,  200.000,  60.000
3039,  '1',  40.097,  8.480,  44.520,  -30.100,  1.04000,  0,  250.800,  0.00000,  1.00000,  0.00000,  0.00000,  1.00000,  1,  100.0,  209.000,  62.700
3045,  '1',  134.100,  5.629,  227.520,  -49.620,  1.04000,  0,  536.400,  0.00000,  0.14470,  0.00000,  0.00000,  1.00000,  1,  100.0,  447.000,  134.100
3048,  '1',  46.236,  -34.700,  51.330,  -34.700,  1.04000,  0,  289.200,  0.00000,  1.00000,  0.00000,  0.00000,  1.00000,  1,  100.0,  241.000,  72.300
3055,  '1',  47.037,  11.389,  52.220,  -35.300,  1.04000,  0,  294.200,  0.00000,  1.00000,  0.00000,  0.00000,  1.00000,  1,  100.0,  245.170,  73.550
3056,  '1',  47.037,  6.154,  52.220,  -35.300,  1.04000,  0,  294.200,  0.00000,  1.00000,  0.00000,  0.00000,  1.00000,  1,  100.0,  245.170,  73.550
3057,  '1',  47.037,  5.840,  52.220,  -35.300,  1.04000,  0,  294.200,  0.00000,  1.00000,  0.00000,  0.00000,  1.00000,  1,  100.0,  245.170,  73.550
3060,  '1',  31.776,  3.608,  35.280,  -23.850,  1.04000,  0,  198.750,  0.00000,  1.00000,  0.00000,  0.00000,  1.00000,  1,  100.0,  165.630,  49.690
3061,  '1',  31.776,  4.969,  35.280,  -23.850,  1.04000,  0,  198.750,  0.00000,  1.00000,  0.00000,  0.00000,  1.00000,  1,  100.0,  165.630,  49.690
3062,  '1',  31.776,  9.404,  35.280,  -23.850,  1.04000,  0,  198.750,  0.00000,  1.00000,  0.00000,  0.00000,  1.00000,  1,  100.0,  165.630,  49.690
3063,  '1',  31.776,  6.511,  35.280,  -23.850,  1.04000,  0,  198.750,  0.00000,  1.00000,  0.00000,  0.00000,  1.00000,  1,  100.0,  165.630,  49.690
3071,  '1',  32.653,  -24.510,  36.250,  -24.510,  1.00000,  0,  204.240,  0.00000,  1.00000,  0.00000,  0.00000,  1.00000,  1,  100.0,  170.200,  51.060
3081,  '1',  47.771,  4.222,  53.040,  -35.860,  1.04000,  0,  298.800,  0.00000,  1.00000,  0.00000,  0.00000,  1.00000,  1,  100.0,  249.000,  74.700
3084,  '1',  44.604,  -33.196,  49.520,  -33.480,  1.00000,  0,  279.000,  0.00000,  1.00000,  0.00000,  0.00000,  1.00000,  1,  100.0,  232.500,  69.750
3092,  '1',  38.370,  7.538,  42.600,  -28.800,  1.04000,  0,  240.000,  0.00000,  1.00000,  0.00000,  0.00000,  1.00000,  1,  100.0,  200.000,  60.000
3098,  '1',  30.696,  3.859,  34.080,  -23.040,  1.04000,  0,  192.000,  0.00000,  1.00000,  0.00000,  0.00000,  1.00000,  1,  100.0,  160.000,  48.000
3106,  '1',  60.367,  -17.175,  62.477,  -2.690,  1.00000,  0,  65.880,  0.00000,  0.29220,  0.00000,  0.00000,  1.00000,  1,  100.0,  162.800,  0.000
3122,  '1',  37.795,  -16.336,  41.960,  -28.370,  1.00000,  0,  236.400,  0.00000,  1.00000,  0.00000,  0.00000,  1.00000,  1,  100.0,  197.000,  59.100
4010,  '1',  38.677,  17.410,  42.940,  -29.030,  1.03000,  0,  241.920,  0.00000,  1.00000,  0.00000,  0.00000,  1.00000,  1,  100.0,  201.600,  60.480
4026,  '1',  123.000,  28.578,  191.060,  -50.020,  1.03000,  0,  492.000,  0.00000,  0.32770,  0.00000,  0.00000,  1.00000,  1,  100.0,  410.000,  123.000
4030,  '1',  224.626,  32.341,  290.040,  -75.930,  1.01000,  0,  746.880,  0.00000,  0.27970,  0.00000,  0.00000,  1.00000,  1,  100.0,  622.400,  186.720
4047,  '1',  45.123,  9.189,  75.102,  -3.230,  1.02000,  0,  79.200,  0.00000,  0.32270,  0.00000,  0.00000,  1.00000,  1,  100.0,  195.700,  0.000
4050,  '1',  38.370,  -28.800,  42.600,  -28.800,  1.00000,  0,  240.000,  0.00000,  1.00000,  0.00000,  0.00000,  1.00000,  1,  100.0,  200.000,  60.000
4058,  '1',  83.520,  18.965,  73.300,  -15.980,  1.03000,  0,  172.800,  0.00000,  0.13700,  0.00000,  0.00000,  1.00000,  1,  100.0,  144.000,  43.200
4059,  '1',  83.520,  20.723,  73.300,  -15.980,  1.03000,  0,  172.800,  0.00000,  0.15140,  0.00000,  0.00000,  1.00000,  1,  100.0,  144.000,  43.200
4060,  '1',  83.520,  13.825,  73.300,  -15.980,  1.03000,  0,  172.800,  0.00000,  0.13940,  0.00000,  0.00000,  1.00000,  1,  100.0,  144.000,  43.200
4061,  '1',  124.080,  20.272,  87.720,  -19.130,  1.03000,  0,  206.800,  0.00000,  0.21560,  0.00000,  0.00000,  1.00000,  1,  100.0,  172.330,  51.700
4062,  '1',  124.080,  15.692,  87.720,  -19.130,  1.03000,  0,  206.800,  0.00000,  0.25930,  0.00000,  0.00000,  1.00000,  1,  100.0,  172.330,  51.700
4063,  '1',  124.080,  21.599,  87.720,  -19.130,  1.03000,  0,  206.800,  0.00000,  0.14410,  0.00000,  0.00000,  1.00000,  1,  100.0,  172.330,  51.700
4082,  '1',  175.250,  29.109,  123.890,  -27.020,  1.04000,  0,  292.080,  0.00000,  0.13810,  0.00000,  0.00000,  1.00000,  1,  100.0,  243.400,  73.020
4083,  '1',  175.250,  30.781,  123.890,  -27.020,  1.04000,  0,  292.080,  0.00000,  0.15700,  0.00000,  0.00000,  1.00000,  1,  100.0,  243.400,  73.020
4084,  '1',  175.250,  52.867,  123.890,  -27.020,  1.04000,  0,  292.080,  0.00000,  0.19110,  0.00000,  0.00000,  1.00000,  1,  100.0,  243.400,  73.020
4085,  '1',  302.720,  62.309,  179.170,  -39.070,  1.04000,  0,  422.400,  0.00000,  0.31920,  0.00000,  0.00000,  1.00000,  1,  100.0,  352.000,  105.600
4105,  '1',  73.001,  10.542,  38.340,  -25.920,  1.01000,  0,  216.000,  0.00000,  1.00000,  0.00000,  0.00000,  1.00000,  1,  100.0,  180.000,  54.000
4115,  '1',  39.540,  34.490,  67.090,  -14.630,  1.04000,  0,  158.160,  0.00000,  0.11310,  0.00000,  0.00000,  1.00000,  1,  100.0,  131.800,  39.540
4116,  '1',  39.540,  32.395,  67.090,  -14.630,  1.04000,  0,  158.160,  0.00000,  0.15150,  0.00000,  0.00000,  1.00000,  1,  100.0,  131.800,  39.540
4142,  '1',  36.068,  40.040,  40.040,  -27.070,  1.04000,  0,  225.600,  0.00000,  1.00000,  0.00000,  0.00000,  1.00000,  1,  100.0,  188.000,  56.400
4153,  '1',  54.332,  60.320,  60.320,  -40.780,  1.04000,  0,  339.840,  0.00000,  1.00000,  0.00000,  0.00000,  1.00000,  1,  100.0,  283.200,  84.960
4160,  '1',  142.390,  56.471,  100.660,  -21.950,  1.03000,  0,  237.320,  0.00000,  0.18820,  0.00000,  0.00000,  1.00000,  1,  100.0,  197.770,  59.330
4161,  '1',  142.390,  27.004,  100.660,  -21.950,  1.03000,  0,  237.320,  0.00000,  0.12390,  0.00000,  0.00000,  1.00000,  1,  100.0,  197.770,  59.330
4162,  '1',  142.390,  24.219,  100.660,  -21.950,  1.03000,  0,  237.320,  0.00000,  0.17220,  0.00000,  0.00000,  1.00000,  1,  100.0,  197.770,  59.330
4166,  '1',  38.562,  -28.940,  42.810,  -28.940,  1.00000,  0,  241.200,  0.00000,  1.00000,  0.00000,  0.00000,  1.00000,  1,  100.0,  201.000,  60.300
4181,  '1',  81.150,  42.620,  42.620,  -28.810,  1.04000,  0,  240.120,  0.00000,  1.00000,  0.00000,  0.00000,  1.00000,  1,  100.0,  200.100,  60.030
4183,  '1',  38.946,  43.240,  43.240,  -29.230,  1.03000,  0,  243.600,  0.00000,  1.00000,  0.00000,  0.00000,  1.00000,  1,  100.0,  203.000,  60.900
4192,  '1',  973.650,  93.222,  688.320,  -150.120,  1.02000,  0,  1622.76,  0.00000,  0.14340,  0.00000,  0.00000,  1.00000,  1,  100.0,  1352.31,  405.690
4194,  '1',  38.677,  42.940,  42.940,  -29.030,  1.02000,  0,  241.920,  0.00000,  1.00000,  0.00000,  0.00000,  1.00000,  1,  100.0,  201.600,  60.480
5020,  '1',  48.667,  -17.280,  25.560,  -17.280,  1.00000,  0,  144.000,  0.00000,  1.00000,  0.00000,  0.00000,  1.00000,  1,  100.0,  120.000,  36.000
5023,  '1',  0.000,  0.000,  2.440,  -0.530,  1.04000,  0,  5.760,  0.00000,  0.15290,  0.00000,  0.00000,  1.00000,  0,  100.0,  4.800,  1.440
5035,  '1',  0.000,  0.000,  2.140,  -0.470,  1.02000,  0,  5.040,  0.00000,  0.14180,  0.00000,  0.00000,  1.00000,  0,  100.0,  4.200,  1.260
5036,  '1',  0.000,  3.260,  3.260,  -0.710,  1.02000,  0,  7.680,  0.00000,  0.14370,  0.00000,  0.00000,  1.00000,  0,  100.0,  6.400,  1.920
5037,  '1',  308.470,  -29.214,  157.010,  -34.240,  1.02000,  0,  370.160,  0.00000,  0.29910,  0.00000,  0.00000,  1.00000,  1,  100.0,  308.470,  92.540
5038,  '1',  308.470,  -27.466,  157.010,  -34.240,  1.02000,  0,  370.160,  0.00000,  0.12330,  0.00000,  0.00000,  1.00000,  1,  100.0,  308.470,  92.540
5039,  '1',  308.470,  -34.240,  157.010,  -34.240,  1.02000,  0,  370.160,  0.00000,  0.21470,  0.00000,  0.00000,  1.00000,  1,  100.0,  308.470,  92.540
5040,  '1',  308.470,  -21.227,  157.010,  -34.240,  1.02000,  0,  370.160,  0.00000,  0.19240,  0.00000,  0.00000,  1.00000,  1,  100.0,  308.470,  92.540
5041,  '1',  308.470,  -33.417,  157.010,  -34.240,  1.02000,  0,  370.160,  0.00000,  0.11590,  0.00000,  0.00000,  1.00000,  1,  100.0,  308.470,  92.540
5042,  '1',  308.470,  -24.835,  157.010,  -34.240,  1.02000,  0,  370.160,  0.00000,  0.19130,  0.00000,  0.00000,  1.00000,  1,  100.0,  308.470,  92.540
5051,  '1',  0.000,  43.110,  43.110,  -9.400,  1.02000,  0,  101.640,  0.00000,  0.12480,  0.00000,  0.00000,  1.00000,  0,  100.0,  84.700,  25.410
5057,  '1',  317.350,  -35.230,  161.530,  -35.230,  1.00000,  0,  380.820,  0.00000,  0.19130,  0.00000,  0.00000,  1.00000,  1,  100.0,  317.350,  95.200
5058,  '1',  317.350,  -35.230,  161.530,  -35.230,  1.00000,  0,  380.820,  0.00000,  0.29820,  0.00000,  0.00000,  1.00000,  1,  100.0,  317.350,  95.200
5065,  '1',  0.000,  5.400,  5.400,  -1.180,  1.03000,  0,  12.720,  0.00000,  0.13710,  0.00000,  0.00000,  1.00000,  0,  100.0,  10.600,  3.180
5066,  '1',  0.000,  0.920,  0.920,  -0.200,  1.03000,  0,  2.160,  0.00000,  0.13100,  0.00000,  0.00000,  1.00000,  0,  100.0,  1.800,  0.540
5067,  '1',  438.270,  19.472,  223.080,  -48.650,  1.03000,  0,  525.920,  0.00000,  0.32610,  0.00000,  0.00000,  1.00000,  1,  100.0,  438.270,  131.480
5068,  '1',  438.270,  17.168,  223.080,  -48.650,  1.03000,  0,  525.920,  0.00000,  0.11690,  0.00000,  0.00000,  1.00000,  1,  100.0,  438.270,  131.480
5069,  '1',  438.270,  15.946,  223.080,  -48.650,  1.03000,  0,  525.920,  0.00000,  0.10560,  0.00000,  0.00000,  1.00000,  1,  100.0,  438.270,  131.480
5107,  '1',  0.000,  0.000,  2.660,  -0.700,  1.04000,  0,  6.840,  0.00000,  0.27550,  0.00000,  0.00000,  1.00000,  0,  100.0,  5.700,  1.710
5166,  '1',  73.370,  33.885,  64.390,  -14.040,  1.04000,  0,  151.800,  0.00000,  0.13910,  0.00000,  0.00000,  1.00000,  1,  100.0,  126.500,  37.950
5167,  '1',  0.000,  0.810,  0.810,  -0.180,  1.04000,  0,  1.920,  0.00000,  0.10670,  0.00000,  0.00000,  1.00000,  0,  100.0,  1.600,  0.480
5198,  '1',  60.834,  -21.600,  31.950,  -21.600,  1.00000,  0,  180.000,  0.00000,  1.00000,  0.00000,  0.00000,  1.00000,  1,  100.0,  150.000,  45.000
5206,  '1',  213.860,  -27.600,  126.570,  -27.600,  1.01000,  0,  298.400,  0.00000,  0.11980,  0.00000,  0.00000,  1.00000,  1,  100.0,  248.670,  74.600
5207,  '1',  213.860,  -27.600,  126.570,  -27.600,  1.01000,  0,  298.400,  0.00000,  0.18090,  0.00000,  0.00000,  1.00000,  1,  100.0,  248.670,  74.600
5208,  '1',  213.860,  -27.600,  126.570,  -27.600,  1.01000,  0,  298.400,  0.00000,  0.10560,  0.00000,  0.00000,  1.00000,  1,  100.0,  248.670,  74.600
5238,  '1',  91.251,  -32.400,  47.930,  -32.400,  1.00000,  0,  270.000,  0.00000,  1.00000,  0.00000,  0.00000,  1.00000,  1,  100.0,  225.000,  67.500
5243,  '1',  60.834,  -21.600,  31.950,  -21.600,  1.00000,  0,  180.000,  0.00000,  1.00000,  0.00000,  0.00000,  1.00000,  1,  100.0,  150.000,  45.000
5262,  '1',  1215.000,  -99.630,  447.120,  -99.630,  1.01000,  0,  1458.00,  0.00000,  0.26310,  0.00000,  0.00000,  1.00000,  1,  100.0,  1215.00,  364.500
5263,  '1',  1215.000,  -99.630,  447.120,  -99.630,  1.01000,  0,  1458.00,  0.00000,  0.16260,  0.00000,  0.00000,  1.00000,  1,  100.0,  1215.00,  364.500
5281,  '1',  155.280,  -29.720,  136.280,  -29.720,  1.00000,  0,  321.280,  0.00000,  0.10660,  0.00000,  0.00000,  1.00000,  1,  100.0,  267.730,  80.320
5282,  '1',  155.280,  -29.720,  136.280,  -29.720,  1.00000,  0,  321.280,  0.00000,  0.23940,  0.00000,  0.00000,  1.00000,  1,  100.0,  267.730,  80.320
5283,  '1',  155.280,  -29.720,  136.280,  -29.720,  1.00000,  0,  321.280,  0.00000,  0.10650,  0.00000,  0.00000,  1.00000,  1,  100.0,  267.730,  80.320
5297,  '1',  0.000,  0.000,  1.630,  -0.360,  1.04000,  0,  3.840,  0.00000,  0.19100,  0.00000,  0.00000,  1.00000,  0,  100.0,  3.200,  0.960
5298,  '1',  66.700,  58.530,  58.530,  -12.760,  1.04000,  0,  138.000,  0.00000,  0.13260,  0.00000,  0.00000,  1.00000,  1,  100.0,  115.000,  34.500
5299,  '1',  66.700,  41.934,  58.530,  -12.760,  1.04000,  0,  138.000,  0.00000,  0.32280,  0.00000,  0.00000,  1.00000,  1,  100.0,  115.000,  34.500
5300,  '1',  66.700,  50.543,  58.530,  -12.760,  1.04000,  0,  138.000,  0.00000,  0.21910,  0.00000,  0.00000,  1.00000,  1,  100.0,  115.000,  34.500
5301,  '1',  0.000,  42.090,  42.090,  -9.180,  1.04000,  0,  99.240,  0.00000,  0.19640,  0.00000,  0.00000,  1.00000,  0,  100.0,  82.700,  24.810
5302,  '1',  333.900,  56.970,  236.050,  -51.480,  1.04000,  0,  556.500,  0.00000,  0.13300,  0.00000,  0.00000,  1.00000,  1,  100.0,  463.750,  139.130
5303,  '1',  333.900,  74.254,  236.050,  -51.480,  1.04000,  0,  556.500,  0.00000,  0.17920,  0.00000,  0.00000,  1.00000,  1,  100.0,  463.750,  139.130
5319,  '1',  152.420,  -29.170,  133.770,  -29.170,  1.01000,  0,  315.360,  0.00000,  0.25070,  0.00000,  0.00000,  1.00000,  1,  100.0,  262.800,  78.840
5320,  '1',  152.420,  -29.170,  133.770,  -29.170,  1.01000,  0,  315.360,  0.00000,  0.28140,  0.00000,  0.00000,  1.00000,  1,  100.0,  262.800,  78.840
5321,  '1',  152.420,  -29.170,  133.770,  -29.170,  1.01000,  0,  315.360,  0.00000,  0.12810,  0.00000,  0.00000,  1.00000,  1,  100.0,  262.800,  78.840
5324,  '1',  284.070,  55.495,  144.590,  -31.530,  1.04000,  0,  340.880,  0.00000,  0.21670,  0.00000,  0.00000,  1.00000,  1,  100.0,  284.070,  85.220
5325,  '1',  284.070,  57.555,  144.590,  -31.530,  1.04000,  0,  340.880,  0.00000,  0.15030,  0.00000,  0.00000,  1.00000,  1,  100.0,  284.070,  85.220
5326,  '1',  284.070,  144.590,  144.590,  -31.530,  1.04000,  0,  340.880,  0.00000,  0.18810,  0.00000,  0.00000,  1.00000,  1,  100.0,  284.070,  85.220
5343,  '1',  47.843,  24.450,  79.667,  -3.430,  1.04000,  0,  84.000,  0.00000,  0.24140,  0.00000,  0.00000,  1.00000,  1,  100.0,  207.500,  0.000
5360,  '1',  262.282,  -87.602,  469.730,  -122.980,  1.01000,  0,  1209.60,  0.00000,  0.25510,  0.00000,  0.00000,  1.00000,  1,  100.0,  1008.00,  302.400
5364,  '1',  153.600,  -23.680,  108.590,  -23.680,  1.00000,  0,  256.000,  0.00000,  0.13030,  0.00000,  0.00000,  1.00000,  1,  100.0,  213.330,  64.000
5365,  '1',  153.600,  -23.680,  108.590,  -23.680,  1.00000,  0,  256.000,  0.00000,  0.11650,  0.00000,  0.00000,  1.00000,  1,  100.0,  213.330,  64.000
5366,  '1',  153.600,  -23.680,  108.590,  -23.680,  1.00000,  0,  256.000,  0.00000,  0.15490,  0.00000,  0.00000,  1.00000,  1,  100.0,  213.330,  64.000
5367,  '1',  153.600,  -23.680,  108.590,  -23.680,  1.00000,  0,  256.000,  0.00000,  0.10020,  0.00000,  0.00000,  1.00000,  1,  100.0,  213.330,  64.000
5368,  '1',  153.600,  -23.680,  108.590,  -23.680,  1.00000,  0,  256.000,  0.00000,  0.36180,  0.00000,  0.00000,  1.00000,  1,  100.0,  213.330,  64.000
5369,  '1',  153.600,  -23.680,  108.590,  -23.680,  1.00000,  0,  256.000,  0.00000,  0.24440,  0.00000,  0.00000,  1.00000,  1,  100.0,  213.330,  64.000
5382,  '1',  179.740,  96.151,  106.380,  -23.200,  1.04000,  0,  250.800,  0.00000,  0.24770,  0.00000,  0.00000,  1.00000,  1,  100.0,  209.000,  62.700
5383,  '1',  179.740,  84.742,  106.380,  -23.200,  1.04000,  0,  250.800,  0.00000,  0.39820,  0.00000,  0.00000,  1.00000,  1,  100.0,  209.000,  62.700
5399,  '1',  67.161,  2.754,  35.270,  -23.850,  1.04000,  0,  198.720,  0.00000,  1.00000,  0.00000,  0.00000,  1.00000,  1,  100.0,  165.600,  49.680
5415,  '1',  70.760,  -13.540,  62.100,  -13.540,  1.00000,  0,  146.400,  0.00000,  0.14030,  0.00000,  0.00000,  1.00000,  1,  100.0,  122.000,  36.600
5416,  '1',  70.760,  -13.540,  62.100,  -13.540,  1.00000,  0,  146.400,  0.00000,  0.26480,  0.00000,  0.00000,  1.00000,  1,  100.0,  122.000,  36.600
5417,  '1',  70.760,  -13.540,  62.100,  -13.540,  1.00000,  0,  146.400,  0.00000,  0.16960,  0.00000,  0.00000,  1.00000,  1,  100.0,  122.000,  36.600
5418,  '1',  68.900,  -13.190,  60.470,  -13.190,  1.00000,  0,  142.560,  0.00000,  0.34000,  0.00000,  0.00000,  1.00000,  1,  100.0,  118.800,  35.640
5419,  '1',  68.900,  -13.190,  60.470,  -13.190,  1.00000,  0,  142.560,  0.00000,  0.16420,  0.00000,  0.00000,  1.00000,  1,  100.0,  118.800,  35.640
5423,  '1',  0.000,  -1.380,  6.310,  -1.380,  1.00000,  0,  14.880,  0.00000,  0.12320,  0.00000,  0.00000,  1.00000,  0,  100.0,  12.400,  3.720
5424,  '1',  0.000,  0.000,  1.630,  -0.360,  1.00000,  0,  3.840,  0.00000,  0.18820,  0.00000,  0.00000,  1.00000,  0,  100.0,  3.200,  0.960
5444,  '1',  1090.500,  -223.840,  1026.440,  -223.840,  1.01000,  0,  2419.92,  0.00000,  0.34260,  0.00000,  0.00000,  1.00000,  1,  100.0,  2016.60,  604.980
6006,  '1',  153.360,  18.461,  108.420,  -23.640,  1.04000,  0,  255.600,  0.00000,  0.18770,  0.00000,  0.00000,  1.00000,  1,  100.0,  213.000,  63.900
6007,  '1',  426.000,  31.441,  216.830,  -47.290,  1.04000,  0,  511.200,  0.00000,  0.13420,  0.00000,  0.00000,  1.00000,  1,  100.0,  426.000,  127.800
6008,  '1',  142.800,  16.731,  100.950,  -22.010,  1.04000,  0,  238.000,  0.00000,  0.20160,  0.00000,  0.00000,  1.00000,  1,  100.0,  198.330,  59.500
6009,  '1',  142.800,  10.638,  100.950,  -22.010,  1.04000,  0,  238.000,  0.00000,  0.18430,  0.00000,  0.00000,  1.00000,  1,  100.0,  198.330,  59.500
6010,  '1',  142.800,  13.507,  100.950,  -22.010,  1.04000,  0,  238.000,  0.00000,  0.15620,  0.00000,  0.00000,  1.00000,  1,  100.0,  198.330,  59.500
6042,  '1',  73.828,  10.787,  122.908,  -5.290,  1.04000,  0,  129.600,  0.00000,  0.18770,  0.00000,  0.00000,  1.00000,  1,  100.0,  320.200,  0.000
6069,  '1',  130.590,  -1.204,  92.320,  -20.130,  1.03000,  0,  217.640,  0.00000,  0.22480,  0.00000,  0.00000,  1.00000,  1,  100.0,  181.370,  54.410
6070,  '1',  130.590,  0.536,  92.320,  -20.130,  1.03000,  0,  217.640,  0.00000,  0.24660,  0.00000,  0.00000,  1.00000,  1,  100.0,  181.370,  54.410
6071,  '1',  130.590,  -0.620,  92.320,  -20.130,  1.03000,  0,  217.640,  0.00000,  0.15280,  0.00000,  0.00000,  1.00000,  1,  100.0,  181.370,  54.410
6072,  '1',  130.590,  0.687,  92.320,  -20.130,  1.03000,  0,  217.640,  0.00000,  0.19250,  0.00000,  0.00000,  1.00000,  1,  100.0,  181.370,  54.410
6073,  '1',  130.590,  -0.585,  92.320,  -20.130,  1.03000,  0,  217.640,  0.00000,  0.14260,  0.00000,  0.00000,  1.00000,  1,  100.0,  181.370,  54.410
6074,  '1',  130.590,  -1.425,  92.320,  -20.130,  1.03000,  0,  217.640,  0.00000,  0.11150,  0.00000,  0.00000,  1.00000,  1,  100.0,  181.370,  54.410
6078,  '1',  169.000,  -68.730,  262.510,  -68.730,  1.00000,  0,  676.000,  0.00000,  0.28900,  0.00000,  0.00000,  1.00000,  1,  100.0,  563.330,  169.000
6079,  '1',  169.000,  -68.730,  262.510,  -68.730,  1.00000,  0,  676.000,  0.00000,  0.25330,  0.00000,  0.00000,  1.00000,  1,  100.0,  563.330,  169.000
6080,  '1',  169.000,  -68.730,  262.510,  -68.730,  1.00000,  0,  676.000,  0.00000,  0.32510,  0.00000,  0.00000,  1.00000,  1,  100.0,  563.330,  169.000
6106,  '1',  70.180,  61.590,  61.590,  -13.430,  1.04000,  0,  145.200,  0.00000,  0.12010,  0.00000,  0.00000,  1.00000,  1,  100.0,  121.000,  36.300
6110,  '1',  177.180,  45.981,  275.220,  -72.050,  1.04000,  0,  708.720,  0.00000,  0.16800,  0.00000,  0.00000,  1.00000,  1,  100.0,  590.600,  177.180
6111,  '1',  198.450,  46.666,  308.260,  -80.700,  1.04000,  0,  793.800,  0.00000,  0.21900,  0.00000,  0.00000,  1.00000,  1,  100.0,  661.500,  198.450
6145,  '1',  446.000,  13.417,  227.010,  -49.510,  1.03000,  0,  535.200,  0.00000,  0.14770,  0.00000,  0.00000,  1.00000,  1,  100.0,  446.000,  133.800
6146,  '1',  446.000,  13.444,  227.010,  -49.510,  1.03000,  0,  535.200,  0.00000,  0.11950,  0.00000,  0.00000,  1.00000,  1,  100.0,  446.000,  133.800
6147,  '1',  307.357,  6.578,  474.390,  -103.450,  1.03000,  0,  1118.40,  0.00000,  0.10440,  0.00000,  0.00000,  1.00000,  1,  100.0,  932.000,  279.600
6148,  '1',  216.600,  5.542,  367.500,  -80.140,  1.03000,  0,  866.400,  0.00000,  0.23830,  0.00000,  0.00000,  1.00000,  1,  100.0,  722.000,  216.600
6149,  '1',  216.600,  11.955,  367.500,  -80.140,  1.03000,  0,  866.400,  0.00000,  0.12770,  0.00000,  0.00000,  1.00000,  1,  100.0,  722.000,  216.600
6164,  '1',  169.240,  6.237,  119.640,  -26.090,  1.03000,  0,  282.060,  0.00000,  0.30070,  0.00000,  0.00000,  1.00000,  1,  100.0,  235.050,  70.520
6165,  '1',  169.240,  4.979,  119.640,  -26.090,  1.03000,  0,  282.060,  0.00000,  0.18390,  0.00000,  0.00000,  1.00000,  1,  100.0,  235.050,  70.520
6166,  '1',  169.240,  11.988,  119.640,  -26.090,  1.03000,  0,  282.060,  0.00000,  0.25100,  0.00000,  0.00000,  1.00000,  1,  100.0,  235.050,  70.520
6167,  '1',  169.240,  6.761,  119.640,  -26.090,  1.03000,  0,  282.060,  0.00000,  0.13970,  0.00000,  0.00000,  1.00000,  1,  100.0,  235.050,  70.520
6213,  '1',  41.018,  0.301,  68.286,  -2.940,  1.04000,  0,  72.000,  0.00000,  0.33650,  0.00000,  0.00000,  1.00000,  1,  100.0,  177.900,  0.000
6214,  '1',  127.344,  0.937,  212.059,  -9.130,  1.04000,  0,  223.600,  0.00000,  0.21900,  0.00000,  0.00000,  1.00000,  1,  100.0,  552.300,  0.000
6215,  '1',  127.344,  2.224,  212.059,  -9.130,  1.04000,  0,  223.600,  0.00000,  0.20110,  0.00000,  0.00000,  1.00000,  1,  100.0,  552.300,  0.000
6216,  '1',  127.344,  1.072,  212.059,  -9.130,  1.04000,  0,  223.600,  0.00000,  0.37760,  0.00000,  0.00000,  1.00000,  1,  100.0,  552.300,  0.000
6243,  '1',  131.760,  36.357,  93.150,  -20.310,  1.04000,  0,  219.600,  0.00000,  0.28800,  0.00000,  0.00000,  1.00000,  1,  100.0,  183.000,  54.900
6244,  '1',  298.000,  45.419,  151.680,  -33.080,  1.04000,  0,  357.600,  0.00000,  0.12500,  0.00000,  0.00000,  1.00000,  1,  100.0,  298.000,  89.400
6245,  '1',  298.000,  52.117,  151.680,  -33.080,  1.04000,  0,  357.600,  0.00000,  0.24960,  0.00000,  0.00000,  1.00000,  1,  100.0,  298.000,  89.400
6246,  '1',  298.000,  97.416,  151.680,  -33.080,  1.04000,  0,  357.600,  0.00000,  0.16990,  0.00000,  0.00000,  1.00000,  1,  100.0,  298.000,  89.400
6247,  '1',  132.000,  79.842,  93.320,  -20.350,  1.04000,  0,  220.000,  0.00000,  0.11730,  0.00000,  0.00000,  1.00000,  1,  100.0,  183.330,  55.000
6248,  '1',  132.000,  40.341,  93.320,  -20.350,  1.04000,  0,  220.000,  0.00000,  0.27550,  0.00000,  0.00000,  1.00000,  1,  100.0,  183.330,  55.000
6249,  '1',  132.000,  27.480,  93.320,  -20.350,  1.04000,  0,  220.000,  0.00000,  0.17480,  0.00000,  0.00000,  1.00000,  1,  100.0,  183.330,  55.000
6257,  '1',  139.680,  -21.530,  98.750,  -21.530,  1.02000,  0,  232.800,  0.00000,  0.15520,  0.00000,  0.00000,  1.00000,  1,  100.0,  194.000,  58.200
6258,  '1',  139.680,  -21.530,  98.750,  -21.530,  1.02000,  0,  232.800,  0.00000,  0.26310,  0.00000,  0.00000,  1.00000,  1,  100.0,  194.000,  58.200
6260,  '1',  185.040,  -28.530,  130.810,  -28.530,  1.02000,  0,  308.400,  0.00000,  0.11970,  0.00000,  0.00000,  1.00000,  1,  100.0,  257.000,  77.100
6295,  '1',  148.490,  -22.890,  104.970,  -22.890,  1.02000,  0,  247.480,  0.00000,  0.21970,  0.00000,  0.00000,  1.00000,  1,  100.0,  206.230,  61.870
6296,  '1',  148.490,  -22.890,  104.970,  -22.890,  1.02000,  0,  247.480,  0.00000,  0.25670,  0.00000,  0.00000,  1.00000,  1,  100.0,  206.230,  61.870
6297,  '1',  148.500,  -22.890,  104.970,  -22.890,  1.02000,  0,  247.480,  0.00000,  0.14170,  0.00000,  0.00000,  1.00000,  1,  100.0,  206.230,  61.900
6302,  '1',  178.020,  -27.440,  125.850,  -27.440,  1.00000,  0,  296.700,  0.00000,  0.25960,  0.00000,  0.00000,  1.00000,  1,  100.0,  247.250,  74.180
6303,  '1',  178.020,  -27.440,  125.850,  -27.440,  1.00000,  0,  296.700,  0.00000,  0.27270,  0.00000,  0.00000,  1.00000,  1,  100.0,  247.250,  74.180
6304,  '1',  178.020,  -27.440,  125.850,  -27.440,  1.00000,  0,  296.700,  0.00000,  0.11710,  0.00000,  0.00000,  1.00000,  1,  100.0,  247.250,  74.180
6305,  '1',  178.020,  -27.440,  125.850,  -27.440,  1.00000,  0,  296.700,  0.00000,  0.12770,  0.00000,  0.00000,  1.00000,  1,  100.0,  247.250,  74.180
...
 0 /End of Generator data, Begin Branch data
1004,  1023,  '99',  0.01325,  0.30384,  0.00000,  0.00,  0.00,  0.00,  0.00000,  0.000,  0.00000,  0.00000,  0.00000,  0.00000,  1
1004,  1063,  '99',  0.87094,  4.40596,  0.00000,  0.00,  0.00,  0.00,  0.00000,  0.000,  0.00000,  0.00000,  0.00000,  0.00000,  1
1004,  2062,  '99',  0.74585,  4.49721,  0.00000,  0.00,  0.00,  0.00,  0.00000,  0.000,  0.00000,  0.00000,  0.00000,  0.00000,  1
1004,  2100,  '99',  0.04196,  0.54416,  0.00000,  0.00,  0.00,  0.00,  0.00000,  0.000,  0.00000,  0.00000,  0.00000,  0.00000,  1
1004,  2127,  '99',  0.07013,  0.51743,  0.00000,  0.00,  0.00,  0.00,  0.00000,  0.000,  0.00000,  0.00000,  0.00000,  0.00000,  1
1004,  3039,  '99',  0.02954,  0.30691,  0.00000,  0.00,  0.00,  0.00,  0.00000,  0.000,  0.00000,  0.00000,  0.00000,  0.00000,  1
1004,  3045,  '99',  0.70815,  4.11348,  0.00000,  0.00,  0.00,  0.00,  0.00000,  0.000,  0.00000,  0.00000,  0.00000,  0.00000,  1
1004,  3048,  '99',  0.04126,  0.29324,  0.00000,  0.00,  0.00,  0.00,  0.00000,  0.000,  0.00000,  0.00000,  0.00000,  0.00000,  1
1004,  3055,  '99',  0.73493,  3.85597,  0.00000,  0.00,  0.00,  0.00,  0.00000,  0.000,  0.00000,  0.00000,  0.00000,  0.00000,  1
1004,  3081,  '99',  0.03706,  0.39819,  0.00000,  0.00,  0.00,  0.00,  0.00000,  0.000,  0.00000,  0.00000,  0.00000,  0.00000,  1
1004,  3098,  '99',  0.02591,  0.42120,  0.00000,  0.00,  0.00,  0.00,  0.00000,  0.000,  0.00000,  0.00000,  0.00000,  0.00000,  1
1004,  3122,  '99',  0.46276,  3.14387,  0.00000,  0.00,  0.00,  0.00,  0.00000,  0.000,  0.00000,  0.00000,  0.00000,  0.00000,  1
1004,  5399,  '99',  0.63306,  4.55813,  0.00000,  0.00,  0.00,  0.00,  0.00000,  0.000,  0.00000,  0.00000,  0.00000,  0.00000,  1
1021,  1033,  '99',  0.20663,  3.42439,  0.00000,  0.00,  0.00,  0.00,  0.00000,  0.000,  0.00000,  0.00000,  0.00000,  0.00000,  1
1021,  1063,  '99',  0.05548,  0.82122,  0.00000,  0.00,  0.00,  0.00,  0.00000,  0.000,  0.00000,  0.00000,  0.00000,  0.00000,  1
1021,  1072,  '99',  0.51573,  4.23508,  0.00000,  0.00,  0.00,  0.00,  0.00000,  0.000,  0.00000,  0.00000,  0.00000,  0.00000,  1
1021,  1075,  '99',  0.48003,  4.94359,  0.00000,  0.00,  0.00,  0.00,  0.00000,  0.000,  0.00000,  0.00000,  0.00000,  0.00000,  1
1021,  1076,  '99',  0.21602,  2.45003,  0.00000,  0.00,  0.00,  0.00,  0.00000,  0.000,  0.00000,  0.00000,  0.00000,  0.00000,  1
1021,  1081,  '99',  0.16489,  1.93904,  0.00000,  0.00,  0.00,  0.00,  0.00000,  0.000,  0.00000,  0.00000,  0.00000,  0.00000,  1
1021,  3045,  '99',  0.21214,  3.63515,  0.00000,  0.00,  0.00,  0.00,  0.00000,  0.000,  0.00000,  0.00000,  0.00000,  0.00000,  1
1021,  3048,  '99',  0.12213,  0.94182,  0.00000,  0.00,  0.00,  0.00,  0.00000,  0.000,  0.00000,  0.00000,  0.00000,  0.00000,  1
1021,  3061,  '99',  -0.00162,  4.29262,  0.00000,  0.00,  0.00,  0.00,  0.00000,  0.000,  0.00000,  0.00000,  0.00000,  0.00000,  1
1021,  3062,  '99',  0.02465,  2.16941,  0.00000,  0.00,  0.00,  0.00,  0.00000,  0.000,  0.00000,  0.00000,  0.00000,  0.00000,  1
1021,  3063,  '99',  0.03265,  3.08556,  0.00000,  0.00,  0.00,  0.00,  0.00000,  0.000,  0.00000,  0.00000,  0.00000,  0.00000,  1
1023,  2100,  '99',  0.06717,  2.97332,  0.00000,  0.00,  0.00,  0.00,  0.00000,  0.000,  0.00000,  0.00000,  0.00000,  0.00000,  1
1023,  2127,  '99',  0.22969,  2.86029,  0.00000,  0.00,  0.00,  0.00,  0.00000,  0.000,  0.00000,  0.00000,  0.00000,  0.00000,  1
1023,  3048,  '99',  0.72495,  4.55581,  0.00000,  0.00,  0.00,  0.00,  0.00000,  0.000,  0.00000,  0.00000,  0.00000,  0.00000,  1
1023,  3098,  '99',  0.01680,  2.24844,  0.00000,  0.00,  0.00,  0.00,  0.00000,  0.000,  0.00000,  0.00000,  0.00000,  0.00000,  1
1033,  1048,  '99',  0.42269,  2.12717,  0.00000,  0.00,  0.00,  0.00,  0.00000,  0.000,  0.00000,  0.00000,  0.00000,  0.00000,  1
1033,  1049,  '99',  0.65171,  3.82697,  0.00000,  0.00,  0.00,  0.00,  0.00000,  0.000,  0.00000,  0.00000,  0.00000,  0.00000,  1
1033,  1053,  '99',  0.49488,  2.85960,  0.00000,  0.00,  0.00,  0.00,  0.00000,  0.000,  0.00000,  0.00000,  0.00000,  0.00000,  1
1033,  1063,  '99',  -0.01233,  3.24679,  0.00000,  0.00,  0.00,  0.00,  0.00000,  0.000,  0.00000,  0.00000,  0.00000,  0.00000,  1
1033,  1070,  '99',  0.03827,  0.27199,  0.00000,  0.00,  0.00,  0.00,  0.00000,  0.000,  0.00000,  0.00000,  0.00000,  0.00000,  1
1033,  1081,  '99',  0.00299,  0.03079,  0.00000,  0.00,  0.00,  0.00,  0.00000,  0.000,  0.00000,  0.00000,  0.00000,  0.00000,  1
1033,  3048,  '99',  0.46494,  2.67866,  0.00000,  0.00,  0.00,  0.00,  0.00000,  0.000,  0.00000,  0.00000,  0.00000,  0.00000,  1
1033,  3062,  '99',  0.19439,  3.01175,  0.00000,  0.00,  0.00,  0.00,  0.00000,  0.000,  0.00000,  0.00000,  0.00000,  0.00000,  1
1033,  3063,  '99',  0.27314,  4.28380,  0.00000,  0.00,  0.00,  0.00,  0.00000,  0.000,  0.00000,  0.00000,  0.00000,  0.00000,  1
1033,  4026,  '99',  0.21836,  4.10561,  0.00000,  0.00,  0.00,  0.00,  0.00000,  0.000,  0.00000,  0.00000,  0.00000,  0.00000,  1
1033,  4115,  '99',  0.14078,  2.88477,  0.00000,  0.00,  0.00,  0.00,  0.00000,  0.000,  0.00000,  0.00000,  0.00000,  0.00000,  1
1033,  4116,  '99',  0.17787,  3.03385,  0.00000,  0.00,  0.00,  0.00,  0.00000,  0.000,  0.00000,  0.00000,  0.00000,  0.00000,  1
1048,  1049,  '99',  0.00208,  0.33614,  0.00000,  0.00,  0.00,  0.00,  0.00000,  0.000,  0.00000,  0.00000,  0.00000,  0.00000,  1
1048,  1053,  '99',  0.00223,  0.25128,  0.00000,  0.00,  0.00,  0.00,  0.00000,  0.000,  0.00000,  0.00000,  0.00000,  0.00000,  1
1048,  1070,  '99',  0.39487,  2.72096,  0.00000,  0.00,  0.00,  0.00,  0.00000,  0.000,  0.00000,  0.00000,  0.00000,  0.00000,  1
1048,  1072,  '99',  0.85218,  4.55409,  0.00000,  0.00,  0.00,  0.00,  0.00000,  0.000,  0.00000,  0.00000,  0.00000,  0.00000,  1
1048,  1076,  '99',  0.40377,  2.64027,  0.00000,  0.00,  0.00,  0.00,  0.00000,  0.000,  0.00000,  0.00000,  0.00000,  0.00000,  1
1048,  1081,  '99',  0.53154,  3.46972,  0.00000,  0.00,  0.00,  0.00,  0.00000,  0.000,  0.00000,  0.00000,  0.00000,  0.00000,  1
1048,  3048,  '99',  0.40120,  2.63846,  0.00000,  0.00,  0.00,  0.00,  0.00000,  0.000,  0.00000,  0.00000,  0.00000,  0.00000,  1
1049,  1053,  '99',  -0.00837,  0.44973,  0.00000,  0.00,  0.00,  0.00,  0.00000,  0.000,  0.00000,  0.00000,  0.00000,  0.00000,  1
1049,  1070,  '99',  0.57272,  4.88808,  0.00000,  0.00,  0.00,  0.00,  0.00000,  0.000,  0.00000,  0.00000,  0.00000,  0.00000,  1
1049,  1076,  '99',  0.59262,  4.74413,  0.00000,  0.00,  0.00,  0.00,  0.00000,  0.000,  0.00000,  0.00000,  0.00000,  0.00000,  1
1049,  3048,  '99',  0.58811,  4.74076,  0.00000,  0.00,  0.00,  0.00,  0.00000,  0.000,  0.00000,  0.00000,  0.00000,  0.00000,  1
1053,  1070,  '99',  0.43797,  3.65300,  0.00000,  0.00,  0.00,  0.00,  0.00000,  0.000,  0.00000,  0.00000,  0.00000,  0.00000,  1
1053,  1076,  '99',  0.45255,  3.54536,  0.00000,  0.00,  0.00,  0.00,  0.00000,  0.000,  0.00000,  0.00000,  0.00000,  0.00000,  1
1053,  1081,  '99',  0.00299,  0.02981,  0.00000,  0.00,  0.00,  0.00,  0.00000,  0.000,  0.00000,  0.00000,  0.00000,  0.00000,  1
1053,  3048,  '99',  0.44918,  3.54284,  0.00000,  0.00,  0.00,  0.00,  0.00000,  0.000,  0.00000,  0.00000,  0.00000,  0.00000,  1
1063,  1076,  '99',  0.31803,  3.17351,  0.00000,  0.00,  0.00,  0.00,  0.00000,  0.000,  0.00000,  0.00000,  0.00000,  0.00000,  1
1063,  1081,  '99',  0.35964,  3.12127,  0.00000,  0.00,  0.00,  0.00,  0.00000,  0.000,  0.00000,  0.00000,  0.00000,  0.00000,  1
1063,  3048,  '99',  0.16376,  1.28305,  0.00000,  0.00,  0.00,  0.00,  0.00000,  0.000,  0.00000,  0.00000,  0.00000,  0.00000,  1
1072,  1073,  '99',  0.13359,  1.23894,  0.00000,  0.00,  0.00,  0.00,  0.00000,  0.000,  0.00000,  0.00000,  0.00000,  0.00000,  1
1072,  1074,  '99',  0.06404,  1.18731,  0.00000,  0.00,  0.00,  0.00,  0.00000,  0.000,  0.00000,  0.00000,  0.00000,  0.00000,  1
1072,  1075,  '99',  0.04294,  0.95035,  0.00000,  0.00,  0.00,  0.00,  0.00000,  0.000,  0.00000,  0.00000,  0.00000,  0.00000,  1
1072,  1076,  '99',  0.01709,  0.47077,  0.00000,  0.00,  0.00,  0.00,  0.00000,  0.000,  0.00000,  0.00000,  0.00000,  0.00000,  1
1072,  1077,  '99',  0.07003,  1.14853,  0.00000,  0.00,  0.00,  0.00,  0.00000,  0.000,  0.00000,  0.00000,  0.00000,  0.00000,  1
1072,  1081,  '99',  0.02169,  0.62958,  0.00000,  0.00,  0.00,  0.00,  0.00000,  0.000,  0.00000,  0.00000,  0.00000,  0.00000,  1
1072,  3048,  '99',  0.01384,  0.49614,  0.00000,  0.00,  0.00,  0.00,  0.00000,  0.000,  0.00000,  0.00000,  0.00000,  0.00000,  1
1073,  1074,  '99',  0.16616,  1.80559,  0.00000,  0.00,  0.00,  0.00,  0.00000,  0.000,  0.00000,  0.00000,  0.00000,  0.00000,  1
1073,  1075,  '99',  0.12032,  1.44572,  0.00000,  0.00,  0.00,  0.00,  0.00000,  0.000,  0.00000,  0.00000,  0.00000,  0.00000,  1
1073,  1076,  '99',  0.05324,  0.71640,  0.00000,  0.00,  0.00,  0.00,  0.00000,  0.000,  0.00000,  0.00000,  0.00000,  0.00000,  1
1073,  1077,  '99',  0.17306,  1.74616,  0.00000,  0.00,  0.00,  0.00,  0.00000,  0.000,  0.00000,  0.00000,  0.00000,  0.00000,  1
1073,  1081,  '99',  0.06942,  0.95814,  0.00000,  0.00,  0.00,  0.00,  0.00000,  0.000,  0.00000,  0.00000,  0.00000,  0.00000,  1
1073,  3048,  '99',  0.04975,  0.75525,  0.00000,  0.00,  0.00,  0.00,  0.00000,  0.000,  0.00000,  0.00000,  0.00000,  0.00000,  1
1074,  1075,  '99',  0.04084,  1.38365,  0.00000,  0.00,  0.00,  0.00,  0.00000,  0.000,  0.00000,  0.00000,  0.00000,  0.00000,  1
1074,  1076,  '99',  0.01415,  0.68532,  0.00000,  0.00,  0.00,  0.00,  0.00000,  0.000,  0.00000,  0.00000,  0.00000,  0.00000,  1
1074,  1077,  '99',  0.07575,  1.67261,  0.00000,  0.00,  0.00,  0.00,  0.00000,  0.000,  0.00000,  0.00000,  0.00000,  0.00000,  1
1074,  1081,  '99',  0.01723,  0.91647,  0.00000,  0.00,  0.00,  0.00,  0.00000,  0.000,  0.00000,  0.00000,  0.00000,  0.00000,  1
1074,  3048,  '99',  0.00885,  0.72216,  0.00000,  0.00,  0.00,  0.00,  0.00000,  0.000,  0.00000,  0.00000,  0.00000,  0.00000,  1
1075,  1076,  '99',  0.00654,  0.54839,  0.00000,  0.00,  0.00,  0.00,  0.00000,  0.000,  0.00000,  0.00000,  0.00000,  0.00000,  1
...